testcases/opendss/p1rhs0_1247--p1rdt6163/Regulators.dss
New RegControl.reg_creguladortension(r:p1rdt6163-p1rhs0_1247) transformer=trans_reg_creguladortension(r:p1rdt6163-p1rhs0_1247) winding=2 ptratio=59.99631547328862 band=2.4 vreg = 123.60000000000001

New RegControl.reg_creguladortension(r:p1rdt10836-p1rdt10841) transformer=trans_reg_creguladortension(r:p1rdt10836-p1rdt10841) winding=2 ptratio=59.99631547328862 band=2.4 vreg = 123.60000000000001

New RegControl.reg_creguladortension(r:p1rdt10773-p1rdt10777) transformer=trans_reg_creguladortension(r:p1rdt10773-p1rdt10777) winding=2 ptratio=59.99631547328862 band=2.4 vreg = 123.60000000000001

